data_
_cell_length_a 8.233735
_cell_length_b 8.23373552884
_cell_length_c 20.974129
_cell_angle_alpha 90.0
_cell_angle_beta 90.0
_cell_angle_gamma 120.000001893
loop_
_symmetry_equiv_pos_site_id
_symmetry_equiv_pos_as_xyz
1 'x, y, z'
loop_
_atom_site_label
_atom_site_fract_x
_atom_site_fract_y
_atom_site_fract_z
P 0.2905 0.0 0.25 
P 0.687448 0.698799 0.25 
P 0.989299 0.301851 0.25 
P 0.280805 0.291694 0.748801 
P 0.988837 0.708494 0.748801 
P 0.697604 0.000462 0.748801 
P 0.946683 0.333161 0.582928 
P 0.364425 0.042616 0.582928 
P 0.656138 0.624873 0.582928 
P 0.947678 0.62443 0.079785 
P 0.6547 0.041621 0.079785 
P 0.364869 0.334599 0.079785 
P 0.614226 0.667586 0.91457 
P 0.031307 0.375073 0.91457 
P 0.321713 0.957991 0.91457 
P 0.613337 0.959231 0.417984 
P 0.323841 0.375961 0.417984 
P 0.030068 0.665458 0.417984 
O 0.187866 0.02569 0.308417 
O 0.815772 0.801432 0.308417 
O 0.963609 0.173527 0.308417 
O 0.191554 0.173618 0.811213 
O 0.960011 0.797745 0.811213 
O 0.815681 0.029287 0.811213 
O 0.786938 0.969991 0.686986 
O 0.161001 0.202361 0.686986 
O 0.019307 0.828298 0.686986 
O 0.794351 0.830785 0.187185 
O 0.014381 0.194948 0.187185 
O 0.158514 0.974917 0.187185 
O 0.858182 0.363729 0.645156 
O 0.483494 0.131116 0.645156 
O 0.62557 0.505804 0.645156 
O 0.856194 0.509878 0.142571 
O 0.631631 0.133104 0.142571 
O 0.479421 0.357668 0.142571 
O 0.456319 0.308808 0.017763 
O 0.830437 0.532979 0.017763 
O 0.68049 0.158862 0.017763 
O 0.454948 0.160397 0.52081 
O 0.683397 0.53435 0.52081 
O 0.828901 0.305902 0.52081 
O 0.524303 0.695182 0.977024 
O 0.148827 0.464996 0.977024 
O 0.294117 0.840472 0.977024 
O 0.51194 0.849844 0.480293 
O 0.315852 0.477359 0.480293 
O 0.139454 0.673447 0.480293 
O 0.120487 0.638717 0.354297 
O 0.496177 0.868812 0.354297 
O 0.350582 0.493121 0.354297 
O 0.121126 0.493756 0.852606 
O 0.350578 0.868173 0.852606 
O 0.495542 0.63872 0.852606 
O 0.017522 0.846907 0.419254 
O 0.807333 0.971776 0.419254 
O 0.142391 0.181966 0.419254 
O 0.012118 0.174115 0.913044 
O 0.139945 0.977181 0.913044 
O 0.815184 0.849354 0.913044 
O 0.962325 0.149054 0.584909 
O 0.164676 0.026973 0.584909 
O 0.840245 0.824622 0.584909 
O 0.968105 0.82614 0.079684 
O 0.835982 0.021193 0.079684 
O 0.163159 0.153316 0.079684 
O 0.678512 0.182225 0.747058 
O 0.481661 0.310787 0.747058 
O 0.807073 0.507638 0.747058 
O 0.667249 0.499833 0.244827 
O 0.810532 0.32205 0.244827 
O 0.489465 0.178766 0.244827 
O 0.63556 0.486981 0.915959 
O 0.829369 0.353739 0.915959 
O 0.502318 0.15993 0.915959 
O 0.633053 0.161673 0.416952 
O 0.506567 0.356246 0.416952 
O 0.827626 0.482731 0.416952 
O 0.345603 0.516186 0.079247 
O 0.148531 0.643695 0.079247 
O 0.473112 0.840768 0.079247 
O 0.33759 0.838576 0.582306 
O 0.478933 0.651708 0.582306 
O 0.150723 0.510366 0.582306 
O 0.304461 0.816701 0.24947 
O 0.490187 0.684837 0.24947 
O 0.172597 0.499111 0.24947 
O 0.301908 0.493459 0.750747 
O 0.169498 0.687391 0.750747 
O 0.49584 0.8198 0.750747 
Li 0.989082 0.000217 0.502838 
Li 0.989082 0.000217 0.995309 
Li 0.655749 0.33355 0.830907 
Li 0.655749 0.33355 0.336107 
Li 0.322415 0.666883 0.165062 
Li 0.322415 0.666883 0.666113 
Ti 0.989082 0.000217 0.85366 
Ti 0.989082 0.000217 0.643904 
Ti 0.989082 0.000217 0.137815 
Ti 0.655749 0.33355 0.687866 
Ti 0.655749 0.33355 0.184854 
Ti 0.655749 0.33355 0.974635 
Ti 0.655749 0.33355 0.477206 
Ti 0.322415 0.666883 0.019781 
Ti 0.322415 0.666883 0.523401 
Ti 0.322415 0.666883 0.311789 
Ti 0.322415 0.666883 0.809561 
Al 0.989082 0.000217 0.363921 
Li 0.989082 0.000217 0.251471 
#End