data_
_cell_length_a 24.5394565361
_cell_length_b 8.30995545875
_cell_length_c 8.18909841967
_cell_angle_alpha 89.713378999
_cell_angle_beta 89.6359738049
_cell_angle_gamma 90.2639257229
loop_
_symmetry_equiv_pos_site_id
_symmetry_equiv_pos_as_xyz
1 'x, y, z'
loop_
_atom_site_label
_atom_site_fract_x
_atom_site_fract_y
_atom_site_fract_z
Li 0.291667 0.875 0.875 
Li 0.046884 0.144053 0.131788 
Li 0.296391 0.368459 0.398639 
Li 0.030736 0.659496 0.655409 
Li 0.130856 0.875956 0.380999 
Li 0.215947 0.153202 0.660282 
Li 0.140901 0.37946 0.878012 
Li 0.213683 0.652953 0.115856 
Ti 0.175855 0.260841 0.256506 
Ti 0.09206 0.507098 0.251667 
Ti 0.090323 0.265533 0.509889 
Ti 0.173285 0.51587 0.510456 
Li 0.171089 0.751622 0.775079 
Ti 0.255135 0.51309 0.764014 
Ti 0.252401 0.762305 0.511774 
Ti 0.087513 0.007945 0.759181 
Ti 0.083023 0.77055 0.018108 
Ti 0.170349 0.012247 0.009667 
Ti 0.254899 0.012219 0.255378 
Li 0.263729 0.241766 0.980558 
Ti 0.004339 0.265121 0.753856 
Ti 0.00679 0.50402 6.7e-05 
Ti 0.995678 0.706975 0.28226 
Ti 0.005339 0.022625 0.496794 
O 0.246506 0.998633 0.029966 
O 0.005544 0.731738 0.045456 
O 0.009698 0.034172 0.733099 
O 0.251758 0.741734 0.736564 
O 0.088233 0.003431 0.998993 
O 0.339801 0.288979 0.013244 
O 0.333877 0.991105 0.27346 
O 0.095695 0.275339 0.275276 
O 0.251708 0.530038 0.515755 
O 0.011889 0.25433 0.517765 
O 0.015281 0.487101 0.234362 
O 0.250753 0.235385 0.272262 
O 0.094271 0.496676 0.488088 
O 0.332791 0.777182 0.491645 
O 0.332884 0.526655 0.778113 
O 0.078054 0.78658 0.789906 
O 0.084525 0.034128 0.519839 
O 0.176717 0.739652 0.486939 
O 0.175328 0.026669 0.253501 
O 0.076189 0.733649 0.256036 
O 0.259415 0.99236 0.492674 
O 0.167706 0.281508 0.493098 
O 0.16288 0.011449 0.780984 
O 0.257231 0.292839 0.757966 
O 0.085994 0.535098 0.019842 
O 0.166503 0.236435 0.033618 
O 0.177409 0.514785 0.736247 
O 0.083639 0.242881 0.742095 
O 0.258992 0.530709 0.995355 
O 0.158318 0.789182 0.033537 
O 0.16931 0.492558 0.270645 
O 0.259863 0.778398 0.274773 
Li 0.629938 0.882296 0.867863 
Li 0.372915 0.155743 0.135678 
Li 0.628926 0.397592 0.380242 
Li 0.376574 0.619913 0.633189 
Li 0.46279 0.88563 0.395289 
Li 0.540246 0.149855 0.633652 
Li 0.459767 0.399702 0.857088 
Li 0.545321 0.621032 0.138145 
Ti 0.503585 0.267239 0.256413 
Ti 0.420518 0.506754 0.257169 
Ti 0.421135 0.261813 0.510495 
Li 0.501597 0.5103 0.523981 
Ti 0.505353 0.757109 0.756178 
Li 0.582577 0.51165 0.740276 
Ti 0.584545 0.773344 0.510908 
Ti 0.419478 0.01281 0.758152 
Ti 0.420701 0.760643 0.008126 
Ti 0.504034 0.012748 0.005322 
Ti 0.588822 0.020294 0.250145 
Ti 0.585609 0.271885 0.996247 
Li 0.332588 0.260616 0.775299 
Ti 0.334758 0.506801 0.005531 
Ti 0.337456 0.760258 0.259482 
Ti 0.337338 0.011689 0.513353 
O 0.582896 0.034472 0.01618 
O 0.343387 0.750836 0.02749 
O 0.344061 0.99618 0.740325 
O 0.582168 0.776046 0.739638 
O 0.425706 0.993969 0.997424 
O 0.665328 0.275609 0.988928 
O 0.666439 0.996358 0.26521 
O 0.425355 0.271583 0.267197 
O 0.603516 0.572525 0.448845 
O 0.345974 0.232482 0.496521 
O 0.342488 0.532303 0.243915 
O 0.58255 0.249041 0.234712 
O 0.41898 0.487241 0.48407 
O 0.665666 0.793967 0.494961 
O 0.671974 0.490726 0.770604 
O 0.426896 0.780215 0.776287 
O 0.416935 0.019114 0.520389 
O 0.508672 0.77548 0.52555 
O 0.509953 0.030217 0.238463 
O 0.416997 0.745745 0.245027 
O 0.593052 0.009221 0.484838 
O 0.497905 0.253039 0.48172 
O 0.498907 0.993775 0.775173 
O 0.592482 0.256893 0.769667 
O 0.415066 0.5332 0.02293 
O 0.508113 0.243421 0.019093 
O 0.506528 0.537433 0.754337 
O 0.426667 0.234131 0.736716 
O 0.593832 0.493691 0.013885 
O 0.499599 0.781761 0.998077 
O 0.496443 0.490046 0.239919 
O 0.589228 0.795258 0.265216 
Li 0.956736 0.882784 0.864815 
Li 0.712976 0.141875 0.128596 
Li 0.960461 0.383854 0.377301 
Li 0.714728 0.632936 0.638047 
Li 0.804728 0.887491 0.394761 
Li 0.864176 0.262887 0.673953 
Li 0.79988 0.40745 0.879472 
Li 0.877391 0.638618 0.13645 
Ti 0.837169 0.267067 0.254144 
Ti 0.754935 0.513935 0.252732 
Ti 0.75506 0.272827 0.506022 
Li 0.831534 0.535414 0.529384 
Li 0.842602 0.705236 0.750515 
Li 0.914011 0.532736 0.773455 
Ti 0.918014 0.770355 0.51295 
Ti 0.754371 0.013864 0.754652 
Ti 0.750766 0.773654 0.011044 
Ti 0.837864 0.011698 0.000919 
Ti 0.923301 0.022446 0.251997 
Ti 0.920049 0.271498 0.998966 
Ti 0.668334 0.267506 0.74935 
Ti 0.66934 0.514692 0.996243 
Ti 0.664031 0.736562 0.271078 
Ti 0.671695 0.018618 0.499441 
O 0.916402 0.036787 0.017794 
O 0.670654 0.74629 0.033856 
O 0.674545 0.034812 0.734983 
O 0.927221 0.74757 0.731954 
O 0.755771 0.007635 0.997179 
O 0.001043 0.269593 0.991977 
O 5e-06 0.034942 0.267982 
O 0.756361 0.276429 0.2649 
O 0.949085 0.58414 0.425949 
O 0.674889 0.248432 0.512767 
O 0.6761 0.512321 0.231067 
O 0.915545 0.252002 0.236968 
O 0.747067 0.494202 0.478476 
O 0.004936 0.802483 0.486762 
O 0.012706 0.485645 0.775419 
O 0.742361 0.793882 0.785234 
O 0.74886 0.036151 0.517647 
O 0.844339 0.750913 0.499664 
O 0.843528 0.034364 0.236656 
O 0.742597 0.745412 0.247636 
O 0.927234 0.003101 0.486372 
O 0.829605 0.257866 0.477885 
O 0.828717 0.036082 0.778019 
O 0.929543 0.259171 0.774438 
O 0.747235 0.540294 0.01689 
O 0.84194 0.245947 0.019772 
O 0.844336 0.478407 0.734895 
O 0.746283 0.247718 0.738367 
O 0.931097 0.492089 0.023481 
O 0.82644 0.790307 0.021719 
O 0.829374 0.488594 0.23141 
O 0.926681 0.801323 0.257271 
#end
